powerflow/autotest/test_TriplexLine_opt.glm
//Triplex Line Self-Test

#set include="../../core"
#include "../../core/rt/msvc_debugger.glm"

#include "assert.glm"
#set iteration_limit=1000

clock {
	timezone EST+5EDT;
	starttime '2000-01-01 00:00:00 EST';
}

module powerflow;

///////////////////////////////////////////////////////
// test 3: triplx line (TPL)
///////////////////////////////////////////////////////
// AS phase

object triplex_line {
	phases AS;
	length 100 ft;	
	configuration object triplex_line_configuration {
		conductor_1 object triplex_line_conductor {
			resistance 0.97;
			geometric_mean_radius 0.0111;		
		};
		conductor_2 object triplex_line_conductor {
			resistance 0.97;
			geometric_mean_radius 0.0111;		
		};
		conductor_N object triplex_line_conductor {
			resistance 0.97;
			geometric_mean_radius 0.0111;		
		};
		insulation_thickness 0.08 in;
		diameter 0.368 in;
	};
	from object triplex_node {
		name TPL_fAS;
		phases AS;
		voltage_1 120 + 0j;		
		voltage_2 120 + 0j;
		voltage_N 0;
		nominal_voltage 240.00;
	};
	to object triplex_node {
		name TPL_tAS;
		phases AS;
		voltage_1 120 + 0j;		
		voltage_2 120 + 0j;
		voltage_N 0;
		//current_1  1;
		power_1 1000+2000j;	
		shunt_1 5.3333e-004 -2.6667e-004i;
		nominal_voltage 240.00;
	};
	object double_assert {
		target "power_out";
		value 2242.8929;
		within 0.1;
	};
	object double_assert {
		target "power_in";
		value 2251.1186;
		within 0.1;
	};
};

// BS phase

object triplex_line {
	phases BS;
	length 100 ft;	
	configuration object triplex_line_configuration {
		conductor_1 object triplex_line_conductor {
			resistance 0.97;
			geometric_mean_radius 0.0111;		
		};
		conductor_2 object triplex_line_conductor {
			resistance 0.97;
			geometric_mean_radius 0.0111;		
		};
		conductor_N object triplex_line_conductor {
			resistance 0.97;
			geometric_mean_radius 0.0111;		
		};
		insulation_thickness 0.08 in;
		diameter 0.368 in;
	};
	from object triplex_node {
		name TPL_fBS;
		phases BS;
		voltage_1 120 + 0j;		
		voltage_2 120 + 0j;
		voltage_N 0;
		nominal_voltage 240.00;
	};
	to object triplex_node {
		name TPL_tBS;
		phases BS;
		voltage_1 120 + 0j;		
		voltage_2 120 + 0j;
		voltage_N 0;
		//current_1  1;
		power_1 1000+2000j;	
		shunt_1 5.3333e-004 -2.6667e-004i;
		nominal_voltage 240.00;
	};
	object double_assert {
		target "power_out";
		value 2242.8929;
		within 0.1;
	};
	object double_assert {
		target "power_in";
		value 2251.1186;
		within 0.1;
	};	
};

// CS phase

object triplex_line {
	phases CS;
	length 100 ft;	
	configuration object triplex_line_configuration {
		conductor_1 object triplex_line_conductor {
			resistance 0.97;
			geometric_mean_radius 0.0111;		
		};
		conductor_2 object triplex_line_conductor {
			resistance 0.97;
			geometric_mean_radius 0.0111;		
		};
		conductor_N object triplex_line_conductor {
			resistance 0.97;
			geometric_mean_radius 0.0111;		
		};
		insulation_thickness 0.08 in;
		diameter 0.368 in;
	};
	from object triplex_node {
		name TPL_fCS;
		phases CS;
		voltage_1 120 + 0j;		
		voltage_2 120 + 0j;
		voltage_N 0;
		nominal_voltage 240.00;
	};
	to object triplex_node {
		name TPL_tCS;
		phases CS;
		voltage_1 120 + 0j;		
		voltage_2 120 + 0j;
		voltage_N 0;
		//current_1  1;
		power_1 1000+2000j;	
		shunt_1 5.3333e-004 -2.6667e-004i;
		nominal_voltage 240.00;
	};
	object double_assert {
		target "power_out";
		value 2242.8929;
		within 0.1;
	};
	object double_assert {
		target "power_in";
		value 2251.1186;
		within 0.1;
	};	
};